MatpowerDataProcesssed/d_case2746wp.m
% 01/10/12 File data originated from Matpower data file
% 

Bus.con = [ ...
      1      220      1.1 -0.01073    1    1;
      2      220    1.102  0.02117    1    1;
      3      220    1.065  -0.4597    1    1;
      4      220    1.085  -0.1062    1    1;
      5      220    1.085  -0.1063    1    1;
      6      220     1.06  -0.3006    1    1;
      7      220     1.06  -0.3004    1    1;
      8      400    1.029  -0.2372    1    1;
      9      400    1.029  -0.2371    1    1;
     10      220    1.041  -0.3066    1    1;
     11      220    1.041  -0.3064    1    1;
     12      220    1.041  -0.3062    1    1;
     13      400    1.027  -0.2054    1    1;
     14      400    1.027  -0.2052    1    1;
     15      400    1.028  -0.2904    1    1;
     16      400    1.028  -0.2904    1    1;
     17      220    1.105   -0.371    1    1;
     18      220    1.105   -0.371    1    1;
     19      220     1.09 -0.08611    1    1;
     20      220     1.09 -0.08609    1    1;
     21      220    1.061  -0.3335    1    1;
     22      220     1.06  -0.3336    1    1;
     23      220    1.044  -0.3047    1    1;
     24      220    1.092 -0.04892    1    1;
     25      400    1.015  -0.2422    1    1;
     26      220     1.11 -0.00438    1    1;
     27      220     1.11  0.02571    1    1;
     28      400    1.046        0    1    1;
     29      400    1.046 9.987e-05    1    1;
     30      220    1.048  -0.3211    1    1;
     31      400    1.046 -0.02505    1    1;
     32      220    1.039  -0.3126    1    1;
     33      220    1.092  -0.0489    1    1;
     34      220    1.093   -0.166    1    1;
     35      220    1.089  -0.2294    1    2;
     36      220    1.093  -0.2242    1    2;
     37      220    1.097  -0.1936    1    2;
     38      220    1.097  -0.1937    1    2;
     39      220    1.076  -0.2792    1    2;
     40      220    1.104  -0.1638    1    2;
     41      220    1.104  -0.1638    1    2;
     42      400    1.044  -0.1699    1    2;
     43      220     1.11  -0.1713    1    2;
     44      220     1.11  -0.1709    1    2;
     45      400    1.049   -0.185    1    2;
     46      400    1.049   -0.185    1    2;
     47      220      1.1  -0.1741    1    2;
     48      400    1.035  -0.2705    1    2;
     49      400    1.035  -0.2706    1    2;
     50      400     1.05  -0.2047    1    2;
     51      220    1.083  -0.2589    1    2;
     52      220    1.083  -0.2589    1    2;
     53      400    1.044  -0.1954    1    2;
     54      400    1.044  -0.1954    1    2;
     55      220    1.103  -0.1642    1    2;
     56      220    1.103  -0.1642    1    2;
     57      400    1.046  -0.1775    1    2;
     58      400    1.046  -0.1776    1    2;
     59      220    1.102  -0.1972    1    2;
     60      220    1.102  -0.1972    1    2;
     61      220    1.101  -0.1769    1    2;
     62      220    1.104  -0.1928    1    2;
     63      220    1.104  -0.1929    1    2;
     64      400    1.047  -0.2052    1    2;
     65      400    1.047  -0.2055    1    2;
     66      220    1.089  -0.2211    1    2;
     67      220    1.091  -0.2168    1    2;
     68      220    1.084  -0.2499    1    2;
     69      220    1.101 -0.07803    1    3;
     70      220    1.098  -0.1693    1    3;
     71      220    1.098  -0.1694    1    3;
     72      220    1.106 -0.07589    1    3;
     73      220    1.106 -0.07573    1    3;
     74      220    1.101 -0.08316    1    3;
     75      220    1.101 -0.08323    1    3;
     76      220    1.108 -0.05958    1    3;
     77      220    1.108 -0.05972    1    3;
     78      220     1.11 -0.06508    1    3;
     79      220    1.109 -0.06811    1    3;
     80      220    1.098 -0.08961    1    3;
     81      220    1.098 -0.08958    1    3;
     82      400    1.043 -0.06387    1    3;
     83      220    1.109  -0.1136    1    3;
     84      220    1.107  -0.0686    1    3;
     85      220    1.107 -0.06863    1    3;
     86      220    1.101 -0.07579    1    3;
     87      220    1.101  -0.0759    1    3;
     88      220    1.104 -0.06751    1    3;
     89      220    1.104 -0.06754    1    3;
     90      220    1.104 -0.06805    1    3;
     91      220    1.104 -0.06815    1    3;
     92      400    1.046 -0.03977    1    3;
     93      400    1.046  -0.0398    1    3;
     94      220    1.108 -0.06353    1    3;
     95      220    1.108 -0.06352    1    3;
     96      220    1.105 -0.09725    1    3;
     97      220    1.105 -0.09733    1    3;
     98      220    1.105 -0.08148    1    3;
     99      220    1.105 -0.08157    1    3;
    100      220    1.098   -0.169    1    3;
    101      220    1.098   -0.169    1    3;
    102      220    1.104 -0.07821    1    3;
    103      220    1.104 -0.07839    1    3;
    104      220     1.11 -0.05891    1    3;
    105      220     1.11 -0.05892    1    3;
    106      220    1.108 -0.06225    1    3;
    107      220    1.108 -0.06224    1    3;
    108      220    1.103 -0.08985    1    3;
    109      220    1.103 -0.08996    1    3;
    110      220    1.104  -0.1115    1    3;
    111      220    1.095 -0.09018    1    3;
    112      220    1.095 -0.09017    1    3;
    113      220      1.1 -0.08805    1    3;
    114      220      1.1 -0.08787    1    3;
    115      400    1.044  -0.1039    1    3;
    116      220    1.108 -0.07648    1    3;
    117      220    1.108 -0.07636    1    3;
    118      220    1.108 -0.09981    1    3;
    119      220    1.108     -0.1    1    3;
    120      400    1.049   -0.181    1    3;
    121      400    1.049  -0.1809    1    3;
    122      400     1.05  -0.1073    1    3;
    123      400     1.05  -0.1073    1    3;
    124      220    1.104  -0.1134    1    3;
    125      220    1.108   -0.069    1    3;
    126      220    1.108 -0.06903    1    3;
    127      400    1.043 -0.08943    1    3;
    128      400    1.043 -0.08947    1    3;
    129      220      1.1 -0.07794    1    3;
    130      220      1.1 -0.07788    1    3;
    131      220    1.103  -0.0725    1    3;
    132      220     1.11 -0.04702    1    3;
    133      220     1.11 -0.05354    1    3;
    134      220     1.11   -0.187    1    4;
    135      220     1.11  -0.1872    1    4;
    136      220     1.08  -0.2265    1    4;
    137      220    1.086  -0.1948    1    4;
    138      400    1.021  -0.1728    1    4;
    139      400    1.021  -0.1728    1    4;
    140      220    1.093  -0.3755    1    4;
    141      220    1.094  -0.4861    1    4;
    142      220    1.094  -0.4861    1    4;
    143      220    1.098  -0.4331    1    4;
    144      220    1.097  -0.2358    1    4;
    145      220    1.097  -0.2358    1    4;
    146      220     1.11  -0.2361    1    4;
    147      220     1.11  -0.2363    1    4;
    148      220     1.11  -0.4481    1    4;
    149      220     1.11   -0.448    1    4;
    150      400    1.037  -0.3873    1    4;
    151      400    1.037  -0.3873    1    4;
    152      220    1.058  -0.3777    1    4;
    153      220    1.075  -0.3536    1    4;
    154      220    1.075  -0.3535    1    4;
    155      220     1.11  -0.1222    1    4;
    156      220     1.11  -0.1413    1    4;
    157      220     1.11  -0.1222    1    4;
    158      400    1.035  -0.1159    1    4;
    159      400    1.035  -0.1158    1    4;
    160      220    1.092  -0.4898    1    4;
    161      220    1.092  -0.4898    1    4;
    162      400    1.018  -0.1899    1    4;
    163      400    1.025   -0.163    1    4;
    164      400    1.025  -0.1631    1    4;
    165      220     1.11  -0.2378    1    4;
    166      220     1.11  -0.2381    1    4;
    167      220     1.11  -0.2378    1    4;
    168      220    1.081  -0.4602    1    4;
    169      220    1.093   -0.488    1    4;
    170      220    1.086   -0.392    1    4;
    171      220    1.086  -0.3919    1    4;
    172      400    1.006  -0.4101    1    4;
    173      400    1.006  -0.4101    1    4;
    174      220    1.048  -0.3123    1    4;
    175      220    1.048  -0.3122    1    4;
    176      220    1.085  -0.4012    1    4;
    177      220    1.087   -0.218    1    4;
    178      220    1.087  -0.2179    1    4;
    179      220     1.09  -0.2087    1    4;
    180      220     1.09  -0.2087    1    4;
    181      220    1.045  -0.3389    1    4;
    182      220    1.047  -0.3802    1    5;
    183      220     1.11  -0.4085    1    5;
    184      400    1.036  -0.3782    1    5;
    185      400    1.036  -0.3783    1    5;
    186      400    1.018    -0.37    1    5;
    187      400    1.018    -0.37    1    5;
    188      220    1.022  -0.4369    1    5;
    189      220    1.022  -0.4369    1    5;
    190      220    1.072  -0.3947    1    5;
    191      220    1.072  -0.3947    1    5;
    192      400   0.9912  -0.3475    1    5;
    193      220    1.057  -0.3659    1    5;
    194      220    1.057  -0.3659    1    5;
    195      400    1.008  -0.4043    1    5;
    196      400    1.008  -0.4044    1    5;
    197      220    1.063  -0.4476    1    5;
    198      220    1.063  -0.4475    1    5;
    199      400    1.038  -0.3447    1    5;
    200      400    1.038  -0.3446    1    5;
...
   ];

SW.con = [ ...
     28    430.5      400    1.032        0    0.511 -0.02323     1.05     0.95   0.8595 1 1  1;
     28    430.5      400    1.032        0    0.511 -0.02323     1.05     0.95   0.8595 1 1  1;
     28    430.5      400    1.032        0    0.511 -0.02323     1.05     0.95   0.8595 1 1  1;
   ];

PV.con = [ ...
  17    233.2      220   0.6003    1.091   0.5146 -0.04288     1.11     0.95 1  1;
  18    233.2      220   0.6003    1.091   0.5146 -0.04288     1.11     0.95 1  1;
  26    430.5      220   0.8595    1.091    0.511 -0.02323     1.11     0.95 1  1;
  26    421.9      220   0.8533    1.091   0.5215  -0.0237     1.11     0.95 1  1;
  27    421.9      220   0.8533    1.091   0.5215  -0.0237     1.11     0.95 1  1;
  27    430.5      220   0.8595    1.091    0.511 -0.02323     1.11     0.95 1  1;
  27    430.5      220   0.8595    1.091    0.511 -0.02323     1.11     0.95 1  1;
  29    430.5      400   0.8595    1.032    0.511 -0.02323     1.05     0.95 1  1;
  29    430.5      400   0.8595    1.032    0.511 -0.02323     1.05     0.95 1  1;
  29    430.5      400   0.8595    1.032    0.511 -0.02323     1.05     0.95 1  1;
  43    246.2      220   0.8733    1.091   0.4874 -0.08123     1.11     0.95 1  1;
  43    275.3      220        0    1.091   0.4359 -0.07265     1.11     0.95 1  0;
  43    275.3      220   0.9001    1.091   0.4359 -0.07265     1.11     0.95 1  1;
  44      255      220   0.8824    1.091   0.4706 -0.07843     1.11     0.95 1  1;
  44      255      220   0.8824    1.091   0.4706 -0.07843     1.11     0.95 1  1;
  44      255      220        0    1.091   0.4706 -0.07843     1.11     0.95 1  0;
  45    610.3      400        0    1.032   0.5735 -0.06554     1.05     0.95 1  0;
  45    610.3      400   0.8193    1.032   0.5735 -0.06554     1.05     0.95 1  1;
  55      255      220   0.5098    1.091   0.4706 -0.07843     1.11     0.95 1  1;
  56      255      220   0.5098    1.091   0.4706 -0.07844     1.11     0.95 1  1;
  56      255      220   0.5098    1.091   0.4706 -0.07844     1.11     0.95 1  1;
  57      255      400   0.5098    1.033   0.4706 -0.07843     1.05     0.95 1  1;
  58      255      400        0    1.033   0.4706 -0.07843     1.05     0.95 1  0;
  58      255      400   0.5098    1.033   0.4706 -0.07845     1.05     0.95 1  1;
  58      255      400   0.5098    1.033   0.4706 -0.07845     1.05     0.95 1  1;
  59     85.4      220   0.9192    1.084   0.3939        0     1.11     0.95 1  1;
  78    248.3      220   0.9062    1.091   0.4229  0.02014     1.11     0.95 1  1;
  78    248.3      220   0.9062    1.091   0.4229  0.02014     1.11     0.95 1  1;
  79    243.8      220        0     1.09   0.4307  0.02051     1.11     0.95 1  0;
  79    248.3      220        0     1.09   0.4229  0.02014     1.11     0.95 1  0;
  79    248.3      220   0.9062     1.09   0.4229  0.02014     1.11     0.95 1  1;
  82    425.8      400   0.8924     1.03   0.4509  -0.0869     1.05     0.95 1  1;
  82    408.9      400   0.9049     1.03   0.4255 -0.04647     1.05     0.95 1  1;
 104    251.8      220   0.8936    1.091   0.4488  -0.1906     1.11     0.95 1  1;
 105    251.8      220   0.8936    1.091   0.4488  -0.1906     1.11     0.95 1  1;
 106      150      220      0.8    1.091      0.6 -0.03333     1.11     0.95 1  1;
 107      150      220      0.8    1.091      0.6 -0.03333     1.11     0.95 1  1;
 116      150      220        0     1.09      0.6  -0.1333     1.11     0.95 1  0;
 117      150      220      0.8     1.09      0.6  -0.1333     1.11     0.95 1  1;
 118    129.3      220   0.8507    1.089   0.5259   0.2552     1.11     0.95 1  1;
 125    242.9      220   0.8851    1.091   0.4652 -0.04529     1.11     0.95 1  1;
 126    240.2      220   0.9367    1.091   0.3497 -0.02082     1.11     0.95 1  1;
 126    229.4      220        0    1.091   0.3487  -0.0218     1.11     0.95 1  0;
 127    238.5      400   0.9434    1.029   0.3312 -0.03144     1.05     0.95 1  1;
 127    241.7      400   0.9102    1.029   0.4137 -0.04137     1.05     0.95 1  1;
 132    131.2      220   0.9527    1.091   0.3049  -0.2896     1.11     0.95 1  1;
 132    131.2      220   0.9527    1.091   0.3049  -0.2896     1.11     0.95 1  1;
 133    131.2      220        0    1.091   0.3049  -0.2896     1.11     0.95 1  0;
 133    131.2      220   0.9527    1.091   0.3049  -0.2896     1.11     0.95 1  1;
 134      150      220        0    1.089      0.6        0     1.11     0.95 1  0;
 134      150      220      0.8    1.089      0.6        0     1.11     0.95 1  1;
 135      150      220        0    1.089      0.6        0     1.11     0.95 1  0;
 146     51.4      220   0.9728     1.09   0.2335        0     1.11     0.95 1  1;
 146     51.4      220   0.9728     1.09   0.2335        0     1.11     0.95 1  1;
 147      150      220        0     1.09      0.6        0     1.11     0.95 1  0;
 148    252.4      220   0.3566    1.091   0.4754        0     1.11     0.95 1  1;
 148    237.5      220        0    1.091   0.5053        0     1.11     0.95 1  0;
 148    237.5      220        0    1.091   0.5053        0     1.11     0.95 1  0;
 148    252.4      220   0.3566    1.091   0.4754        0     1.11     0.95 1  1;
 150    252.4      400   0.3566    1.032   0.4754        0     1.05     0.95 1  1;
 151    252.4      400   0.3566    1.032   0.4754        0     1.05     0.95 1  1;
 151    252.4      400   0.3566    1.032   0.4754        0     1.05     0.95 1  1;
 155    263.9      220   0.8905    1.091   0.4547        0     1.11     0.95 1  1;
 155    263.9      220   0.8905    1.091   0.4547        0     1.11     0.95 1  1;
 155    237.5      220        0    1.091   0.5053        0     1.11     0.95 1  0;
 155    287.3      220   0.9085    1.091   0.4177        0     1.11     0.95 1  1;
 156    237.5      220        0    1.091   0.5053        0     1.11     0.95 1  0;
 156    237.5      220   0.8632    1.091   0.5053        0     1.11     0.95 1  1;
 156    238.4      220   0.8641    1.091   0.5034        0     1.11     0.95 1  1;
 156    238.4      220   0.8641    1.091   0.5034        0     1.11     0.95 1  1;
 159    238.4      400   0.8641    1.005   0.5034        0     1.05     0.95 1  1;
 165    233.2      220   0.8576    1.091   0.5146 -3.859e-05     1.11     0.95 1  1;
 165    233.2      220   0.8576    1.091   0.5146 -3.859e-05     1.11     0.95 1  1;
 166    233.2      220   0.8576    1.091   0.5146        0     1.11     0.95 1  1;
 166    233.2      220   0.8576    1.091   0.5146        0     1.11     0.95 1  1;
 205    210.1      400    0.852    1.032   0.5236  -0.2856     1.05     0.95 1  1;
 205    210.1      400    0.852    1.032   0.5236  -0.2856     1.05     0.95 1  1;
 205    210.1      400        0    1.032   0.5236  -0.2856     1.05     0.95 1  0;
 206    210.1      400    0.852    1.032   0.5236  -0.2856     1.05     0.95 1  1;
 215     58.5      110   0.6338    1.086   0.3419        0     1.12     0.95 1  1;
 215     53.9      110   0.6254    1.086   0.3711        0     1.12     0.95 1  1;
 215     53.9      110   0.6254    1.086   0.3711        0     1.12     0.95 1  1;
 215     30.5      110   0.5084    1.086   0.6557        0     1.12     0.95 1  1;
 239     15.4      110   0.2597    1.033   0.5195        0     1.12     0.95 1  1;
 246    430.5       22   0.8595    1.035    0.511 -0.03252     1.12     0.95 1  1;
 291      3.2      110    0.625    1.064    0.625        0     1.12     0.95 1  1;
 294      4.8      110    0.625    1.053   0.4167        0     1.12     0.95 1  1;
 306       24      110    0.382    1.053   0.2917        0     1.12     0.95 1  1;
 306     27.9      110   0.5841    1.053   0.2509        0     1.12     0.95 1  1;
 306       31      110   0.3614    1.053   0.2457   0.1935     1.12     0.95 1  1;
 306     26.9      110   0.3408    1.053   0.2602        0     1.12     0.95 1  1;
 306     28.1      110   0.3262    1.053   0.2821        0     1.12     0.95 1  1;
 307       57      110   0.6404    1.059   0.2632        0     1.12     0.95 1  1;
 307       57      110   0.6404    1.059   0.2632        0     1.12     0.95 1  1;
 308     36.7      110   0.8719    1.067   0.4087        0     1.12     0.95 1  1;
 308     57.7      110   0.6932    1.067    0.305        0     1.12     0.95 1  1;
 310     53.9      110   0.6494    1.073   0.3711        0     1.12     0.95 1  1;
 310    103.6      110   0.7239    1.073    0.263        0     1.12     0.95 1  1;
 311       64      110   0.7031    1.063    0.625        0     1.12     0.95 1  1;
 362     47.8      110   0.7908    1.089    0.251        0     1.12     0.95 1  1;
 363     47.8      110   0.7908     1.06    0.251        0     1.12     0.95 1  1;
 364     47.8      110   0.7908    1.105    0.251        0     1.12     0.95 1  1;
 364       71      110   0.6338    1.105    0.169        0     1.12     0.95 1  1;
 365     47.8      110   0.7908     1.07    0.251        0     1.12     0.95 1  1;
 365     47.8      110   0.7908     1.07    0.251        0     1.12     0.95 1  1;
 382     55.9      110   0.2683    1.082   0.1789        0     1.12     0.95 1  1;
 382    255.9      110   0.4689    1.082   0.4689 -0.03908     1.12     0.95 1  1;
 383     55.9      110   0.2683    1.101   0.1789        0     1.12     0.95 1  1;
 386      4.8      110    0.625    1.058   0.4167        0     1.12     0.95 1  1;
 421      7.7      110   0.5195    1.049   0.5195        0     1.12     0.95 1  1;
 431     13.6      110   0.5147    1.089   0.5882        0     1.12     0.95 1  1;
 440      3.6      110   0.6944    1.029   0.5556        0     1.12     0.95 1  1;
 447     21.3      110   0.1643     1.05    0.939        0     1.12     0.95 1  1;
 447     21.3      110   0.1643     1.05    0.939        0     1.12     0.95 1  1;
 463        4      110        0    1.046      0.5        0     1.12     0.95 1  1;
 482      1.7      110   0.8235    1.027   0.4118        0     1.12     0.95 1  1;
 490      5.3      110   0.6604    1.055    0.566        0     1.12     0.95 1  1;
 522      1.9      110        0    1.069   0.5263        0     1.12     0.95 1  1;
 533      1.9      110   0.2632    1.072   0.5263        0     1.12     0.95 1  1;
 534     53.9      110   0.6659    1.064   0.2597        0     1.12     0.95 1  1;
 534     34.9      110   0.6328    1.064   0.4011        0     1.12     0.95 1  1;
 534     34.9      110   0.6328    1.064   0.4011        0     1.12     0.95 1  1;
 534    107.7      110   0.6729    1.064   0.2229        0     1.12     0.95 1  1;
 534    107.7      110   0.6729    1.064   0.2229        0     1.12     0.95 1  1;
 535     36.5      110   0.6732    1.058   0.4795        0     1.12     0.95 1  1;
 535     35.6      110   0.6687    1.058   0.4916        0     1.12     0.95 1  1;
 535    128.1      110   0.7493    1.058   0.2186        0     1.12     0.95 1  1;
 535    108.7      110   0.7418    1.058   0.2576        0     1.12     0.95 1  1;
 549      1.7      110   0.8235    1.039   0.4118        0     1.12     0.95 1  1;
 557     34.4      110   0.7478     1.04   0.1469        0     1.12     0.95 1  1;
 557     28.5      110   0.7433     1.04   0.1773        0     1.12     0.95 1  1;
 557     26.5      110   0.7423     1.04   0.1887        0     1.12     0.95 1  1;
 557     30.4      110   0.7466     1.04   0.1662        0     1.12     0.95 1  1;
 557     34.4      110   0.7478     1.04   0.1469        0     1.12     0.95 1  1;
 558     34.4      110   0.9021    1.037   0.1472        0     1.12     0.95 1  1;
 558     34.4      110   0.9021    1.037   0.1472        0     1.12     0.95 1  1;
 558     26.5      110    0.861    1.037   0.1887        0     1.12     0.95 1  1;
 558     34.4      110   0.8756    1.037   0.1472        0     1.12     0.95 1  1;
 594      4.5      110   0.5733    1.065      0.3        0     1.12     0.95 1  1;
 601      5.5      110   0.9182    1.062   0.4073        0     1.12     0.95 1  1;
 622      114      110   0.9649    1.078   0.2632        0     1.12     0.95 1  1;
 622     65.3      110        0    1.078   0.4594        0     1.12     0.95 1  0;
 626        3      110   0.9333    1.073   0.3733        0     1.12     0.95 1  1;
 630      6.4      110   0.8766    1.069   0.4906        0     1.12     0.95 1  1;
 631      7.4      110   0.9095    1.069   0.4243        0     1.12     0.95 1  1;
 655      1.3      110   0.9462    1.032   0.3462        0     1.12     0.95 1  1;
 660      255      110   0.5294    1.082   0.4706 -0.07843     1.12     0.95 1  1;
 661      255      110   0.5294    1.082   0.4706 -0.07843     1.12     0.95 1  1;
 667      2.2      110   0.8682    1.037   0.4591        0     1.12     0.95 1  1;
 671     10.1      110   0.9436    1.068   0.3327        0     1.12     0.95 1  1;
 673      4.4      110   0.7636    1.065   0.2545        0     1.12     0.95 1  1;
 681    192.4      110   0.9875     1.08   0.1559        0     1.12     0.95 1  1;
 681     77.5      110   0.3226     1.08   0.3871        0     1.12     0.95 1  1;
 687     12.5      110   0.8968    1.075   0.4488        0     1.12     0.95 1  1;
 699      7.5      110   0.8973    1.075    0.448        0     1.12     0.95 1  1;
 702      1.6      110      0.7    1.072      0.7        0     1.12     0.95 1  1;
 712     10.8      110   0.9259    1.071   0.3704        0     1.12     0.95 1  1;
 718      1.9      110   0.8263    1.031   0.5895        0     1.12     0.95 1  1;
 722        3      110   0.9333    1.061   0.3733        0     1.12     0.95 1  1;
 731      4.3      110   0.3907    1.062   0.1302        0     1.12     0.95 1  1;
 736      255      110   0.5098    1.082   0.4706 -0.07843     1.12     0.95 1  1;
 740      4.3      110   0.5209    1.066        0        0     1.12     0.95 1  1;
 747      6.7      110   0.8701    1.049   0.5015        0     1.12     0.95 1  1;
 759    105.2      110   0.8555     1.07   0.2852        0     1.12     0.95 1  1;
 760      1.3      110        0    1.068        0        0     1.12     0.95 1  0;
 778     32.4      110   0.3809    1.059   0.9259        0     1.12     0.95 1  1;
 780      1.9      110   0.8842    1.078   0.4737        0     1.12     0.95 1  1;
 783      6.7      110   0.8955    1.073   0.4478        0     1.12     0.95 1  1;
 788     95.9      110  0.02086    1.048  0.01043        0     1.12     0.95 1  1;
 792     71.8      110   0.9471    1.054   0.3203        0     1.12     0.95 1  1;
 792     71.8      110        0    1.054   0.3203        0     1.12     0.95 1  0;
 792     23.7      110        0    1.054   0.4641        0     1.12     0.95 1  0;
 792     23.3      110        0    1.054   0.4292        0     1.12     0.95 1  0;
 803     55.9      110        0    1.082   0.1789 -3.578e-05     1.12     0.95 1  1;
 804    120.4      110        0    1.073  0.08306        0     1.12     0.95 1  1;
 809      3.3      110        0     1.07        0        0     1.12     0.95 1  0;
 815      3.9      110   0.8615    1.072   0.5179        0     1.12     0.95 1  1;
 834      1.5      110   0.7467    1.052        0        0     1.12     0.95 1  1;
 840     51.6      110   0.5814    1.059    0.157        0     1.12     0.95 1  1;
 840     51.6      110   0.5814    1.059    0.157        0     1.12     0.95 1  1;
 844      3.5      110   0.5429    1.077   0.1286        0     1.12     0.95 1  1;
 848      5.6      110   0.5375    1.059        0        0     1.12     0.95 1  1;
 854     14.6      110   0.4795    1.062  0.09247        0     1.12     0.95 1  1;
 873     87.7      110   0.7754    1.082   0.4698        0     1.12     0.95 1  1;
 876      1.9      110        0     1.04        0        0     1.12     0.95 1  0;
 896     65.8      110        0    1.069   0.6839   -0.152     1.12     0.95 1  0;
 896     71.1      110        0    1.069   0.6329  -0.1406     1.12     0.95 1  0;
 896     71.1      110   0.7736    1.069   0.6329  -0.1406     1.12     0.95 1  1;
 902      0.3      110     0.37    1.014        0        0     1.12     0.95 1  1;
 903      2.5      110        0    1.014        0        0     1.12     0.95 1  0;
 952        3      110   0.8667    1.061      0.2        0     1.12     0.95 1  1;
 958      2.5      110        0     1.05        0        0     1.12     0.95 1  0;
 972       54      110      0.5    1.082   0.5926  0.09259     1.12     0.95 1  1;
 972     42.5      110        0    1.082   0.7529   0.1176     1.12     0.95 1  0;
 972     11.4      110   0.2632    1.082    0.614  0.08772     1.12     0.95 1  1;
 972    162.2      110   0.4932    1.082   0.6782  -0.2466     1.12     0.95 1  1;
 973    162.2      110   0.4932    1.081   0.6782  -0.2466     1.12     0.95 1  1;
 977     13.9      110    0.972    1.076   0.2473        0     1.12     0.95 1  1;
 986     10.3      110   0.4951    1.068   0.1165        0     1.12     0.95 1  1;
 998    422.6      110   0.9134    1.082    0.407  -0.1396     1.12     0.95 1  1;
...
   ];

PQ.con = [ ...
  17 100      220     0.11      0.4     1.11     0.95 0 1;
  18 100      220     0.14      0.4     1.11     0.95 0 1;
  26 100      220   0.4674   0.7205     1.11     0.95 0 1;
  27 100      220   0.8549    1.221     1.11     0.95 0 1;
  28 100      400      0.6      1.1     1.05     0.95 0 1;
  29 100      400    0.601      0.9     1.05     0.95 0 1;
  43 100      220   0.1144        0     1.11     0.95 0 1;
  44 100      220     0.24        0     1.11     0.95 0 1;
  45 100      400      0.2        0     1.05     0.95 0 1;
  55 100      220     0.12        0     1.11     0.95 0 1;
  56 100      220   0.1144        0     1.11     0.95 0 1;
  57 100      400     0.12        0     1.05     0.95 0 1;
  58 100      400   0.1144        0     1.05     0.95 0 1;
  59 100      220    1.675      0.6     1.11     0.95 0 1;
  70 100      220  0.07123        0     1.11     0.95 0 1;
  71 100      220   0.0831  0.00933     1.11     0.95 0 1;
  78 100      220     0.27      0.7     1.11     0.95 0 1;
  79 100      220     0.09     0.21     1.11     0.95 0 1;
  80 100      220   0.1033   0.0261     1.11     0.95 0 1;
  82 100      400     0.35     1.08     1.05     0.95 0 1;
  86 100      220   0.3789   0.1235     1.11     0.95 0 1;
  98 100      220   0.1603  0.07274     1.11     0.95 0 1;
  99 100      220  0.07764  0.00258     1.11     0.95 0 1;
 104 100      220     0.14      0.4     1.11     0.95 0 1;
 105 100      220     0.14      0.4     1.11     0.95 0 1;
 106 100      220     0.07     0.18     1.11     0.95 0 1;
 107 100      220     0.08     0.15     1.11     0.95 0 1;
 108 100      220  0.01044        0     1.11     0.95 0 1;
 109 100      220  0.01259        0     1.11     0.95 0 1;
 117 100      220     0.08     0.15     1.11     0.95 0 1;
 118 100      220    0.055      0.1     1.11     0.95 0 1;
 125 100      220   0.1834   0.2186     1.11     0.95 0 1;
 126 100      220   0.2847   0.3429     1.11     0.95 0 1;
 127 100      400     0.28     0.66     1.05     0.95 0 1;
 132 100      220     0.03     0.18     1.11     0.95 0 1;
 133 100      220     0.02     0.06     1.11     0.95 0 1;
 134 100      220   0.1545   0.1288     1.11     0.95 0 1;
 135 100      220  0.05255 -0.00357     1.11     0.95 0 1;
 146 100      220   0.1095 -0.00465     1.11     0.95 0 1;
 147 100      220   0.1081 -0.00465     1.11     0.95 0 1;
 148 100      220    0.115   0.0686     1.11     0.95 0 1;
 149 100      220  0.01634  0.03038     1.11     0.95 0 1;
 150 100      400  0.08087  -0.0038     1.05     0.95 0 1;
 151 100      400   0.1617  -0.0076     1.05     0.95 0 1;
 155 100      220   0.3055 -0.03555     1.11     0.95 0 1;
 156 100      220   0.1468 -0.03566     1.11     0.95 0 1;
 159 100      400  0.07385 -0.01783     1.05     0.95 0 1;
 165 100      220  0.04293 -0.08964     1.11     0.95 0 1;
 166 100      220   0.2308  0.07176     1.11     0.95 0 1;
 209 100      110  0.08101    0.015     1.12     0.95 0 1;
 210 100      110  0.08101     0.01     1.12     0.95 0 1;
 211 100      110  0.09114     0.02     1.12     0.95 0 1;
 212 100      110  0.08911    0.078     1.12     0.95 0 1;
 213 100      110   0.0405     0.01     1.12     0.95 0 1;
 214 100      110  0.09619    0.025     1.12     0.95 0 1;
 215 100      110   0.5198    0.243     1.12     0.95 0 1;
 216 100      110   0.2228    0.025     1.12     0.95 0 1;
 217 100      110   0.1013     0.02     1.12     0.95 0 1;
 218 100      110   0.1114     0.02     1.12     0.95 0 1;
 219 100      110   0.1316    0.025     1.12     0.95 0 1;
 220 100      110  0.09114   0.0225     1.12     0.95 0 1;
 222 100      110   0.1114    0.024     1.12     0.95 0 1;
 223 100      110   0.1721    0.031     1.12     0.95 0 1;
 224 100      110  0.01519    0.004     1.12     0.95 0 1;
 225 100      110  0.05265    0.008     1.12     0.95 0 1;
 226 100      110  0.05569    0.005     1.12     0.95 0 1;
 227 100      110   0.1924     0.02     1.12     0.95 0 1;
 228 100      110   0.1114     0.02     1.12     0.95 0 1;
 229 100      110  0.02633   0.0103     1.12     0.95 0 1;
 230 100      110  0.02633   0.0103     1.12     0.95 0 1;
 231 100      110    0.162     0.06     1.12     0.95 0 1;
 232 100      110   0.1013    0.011     1.12     0.95 0 1;
 233 100      110  0.09619    0.015     1.12     0.95 0 1;
 234 100      110   0.2228     0.17     1.12     0.95 0 1;
 235 100      110  0.08607    0.006     1.12     0.95 0 1;
 236 100      110   0.1357   0.0441     1.12     0.95 0 1;
 237 100      110  0.07695    0.008     1.12     0.95 0 1;
 238 100      110   0.1013    0.015     1.12     0.95 0 1;
 239 100      110  0.04493  0.01175     1.12     0.95 0 1;
 240 100      110   0.1387    0.006     1.12     0.95 0 1;
 241 100      110  0.07594   0.0219     1.12     0.95 0 1;
 242 100      110   0.1063    0.004     1.12     0.95 0 1;
 244 100      110  0.03038    0.014     1.12     0.95 0 1;
 246 100       22  0.01982     0.05     1.12     0.95 0 1;
 247 100      110   0.1114    0.015     1.12     0.95 0 1;
 248 100      110  0.03038    0.005     1.12     0.95 0 1;
 249 100      110  0.03038    0.005     1.12     0.95 0 1;
 250 100      110   0.0405    0.005     1.12     0.95 0 1;
 251 100      110   0.0486    0.003     1.12     0.95 0 1;
 252 100      110   0.1924     0.07     1.12     0.95 0 1;
 253 100      110   0.2228     0.04     1.12     0.95 0 1;
 254 100      110    0.162     0.02     1.12     0.95 0 1;
 255 100      110    0.243    0.015     1.12     0.95 0 1;
 256 100      110  0.05569     0.01     1.12     0.95 0 1;
 257 100      110  0.04303    0.006     1.12     0.95 0 1;
 258 100      110  0.04303    0.006     1.12     0.95 0 1;
 259 100      110   0.1124   0.0324     1.12     0.95 0 1;
 260 100      110  0.07088     0.01     1.12     0.95 0 1;
 261 100      110  0.02633    0.012     1.12     0.95 0 1;
 262 100      110   0.1134    0.018     1.12     0.95 0 1;
 263 100      110  0.02329    0.011     1.12     0.95 0 1;
 264 100      110    0.405     0.34     1.12     0.95 0 1;
 265 100      110   0.3848     0.33     1.12     0.95 0 1;
 266 100      110  0.06075     0.01     1.12     0.95 0 1;
 267 100      110   0.1367    0.007     1.12     0.95 0 1;
 268 100      110  0.09923    0.018     1.12     0.95 0 1;
 269 100      110   0.1316    0.015     1.12     0.95 0 1;
 270 100      110   0.1013    0.015     1.12     0.95 0 1;
 271 100      110   0.1823    0.045     1.12     0.95 0 1;
 272 100      110  0.00304    0.001     1.12     0.95 0 1;
 273 100      110  0.00506   0.0015     1.12     0.95 0 1;
 274 100      110  0.00202   0.0006     1.12     0.95 0 1;
 275 100      110   0.1288    0.058     1.12     0.95 0 1;
 276 100      110  0.08587   0.0387     1.12     0.95 0 1;
 277 100      110  0.09619    0.012     1.12     0.95 0 1;
 278 100      110  0.03038    0.005     1.12     0.95 0 1;
 279 100      110  0.08101        0     1.12     0.95 0 1;
 280 100      110   0.1519     0.02     1.12     0.95 0 1;
 281 100      110   0.0962     0.02     1.12     0.95 0 1;
 282 100      110   0.1721     0.14     1.12     0.95 0 1;
 283 100      110    0.162     0.13     1.12     0.95 0 1;
 284 100      110   0.1377   0.0447     1.12     0.95 0 1;
 285 100      110   0.1519     0.04     1.12     0.95 0 1;
 286 100      110   0.1013     0.01     1.12     0.95 0 1;
 287 100      110  0.05063        0     1.12     0.95 0 1;
 288 100      110  0.03037    0.025     1.12     0.95 0 1;
 289 100      110   0.0405  0.00501     1.12     0.95 0 1;
 290 100      110   0.2177    0.067     1.12     0.95 0 1;
 291 100      110     0.16    0.016     1.12     0.95 0 1;
 292 100      110  0.08202   0.0237     1.12     0.95 0 1;
 293 100      110  0.05366     0.01     1.12     0.95 0 1;
 294 100      110  0.07493    0.003     1.12     0.95 0 1;
 295 100      110   0.1316    0.004     1.12     0.95 0 1;
 296 100      110  0.06582    0.015     1.12     0.95 0 1;
 297 100      110   0.1033   0.0336     1.12     0.95 0 1;
 298 100      110   0.1489    0.047     1.12     0.95 0 1;
 299 100      110   0.1519     0.04     1.12     0.95 0 1;
 301 100      110  0.05569    0.012     1.12     0.95 0 1;
 302 100      110   0.1084   0.0352     1.12     0.95 0 1;
 303 100      110   0.1306   0.0377     1.12     0.95 0 1;
 304 100      110   0.2572   0.0742     1.12     0.95 0 1;
 305 100      110   0.2572   0.0742     1.12     0.95 0 1;
 306 100      110   0.9728   0.5472     1.12     0.95 0 1;
 307 100      110   0.6222   0.2254     1.12     0.95 0 1;
 308 100      110   0.3592    0.132     1.12     0.95 0 1;
 310 100      110   0.3945   0.1747     1.12     0.95 0 1;
 311 100      110   0.3085   0.1545     1.12     0.95 0 1;
 312 100      110   0.1549    0.008     1.12     0.95 0 1;
 313 100      110  0.02531    0.005     1.12     0.95 0 1;
 314 100      110  0.03038     0.01     1.12     0.95 0 1;
 315 100      110  0.08606    0.021     1.12     0.95 0 1;
 316 100      110   0.1164    0.026     1.12     0.95 0 1;
 317 100      110   0.1367    0.036     1.12     0.95 0 1;
 318 100      110   0.1337   0.0385     1.12     0.95 0 1;
 319 100      110   0.1914   0.0552     1.12     0.95 0 1;
 320 100      110   0.1721     0.03     1.12     0.95 0 1;
 321 100      110   0.1873   0.0609     1.12     0.95 0 1;
 322 100      110   0.1914   0.0622     1.12     0.95 0 1;
 323 100      110  0.08202   0.0266     1.12     0.95 0 1;
 324 100      110   0.1519     0.03     1.12     0.95 0 1;
 325 100      110   0.2025     0.03     1.12     0.95 0 1;
 326 100      110   0.1782   0.0514     1.12     0.95 0 1;
 327 100      110  0.09619     0.02     1.12     0.95 0 1;
 328 100      110  0.04557     0.01     1.12     0.95 0 1;
 329 100      110   0.5174   0.1492     1.12     0.95 0 1;
 330 100      110   0.1853     0.02     1.12     0.95 0 1;
 332 100      110   0.1316     0.03     1.12     0.95 0 1;
 333 100      110  0.06075    0.005     1.12     0.95 0 1;
 334 100      110   0.1681   0.0485     1.12     0.95 0 1;
 335 100      110  0.09113    0.025     1.12     0.95 0 1;
 336 100      110   0.1823    0.054     1.12     0.95 0 1;
 337 100      110   0.1823    0.054     1.12     0.95 0 1;
 338 100      110  0.05063        0     1.12     0.95 0 1;
 341 100      110   0.1873    0.055     1.12     0.95 0 1;
 342 100      110   0.1681    0.039     1.12     0.95 0 1;
 344 100      110  0.06075    0.005     1.12     0.95 0 1;
 345 100      110   0.1215     0.03     1.12     0.95 0 1;
 346 100      110  0.08708  0.00701     1.12     0.95 0 1;
 347 100      110   0.1914   0.0552     1.12     0.95 0 1;
 348 100      110   0.1367   0.0338     1.12     0.95 0 1;
 350 100      110  0.07088    0.005     1.12     0.95 0 1;
 352 100      110  0.03038    0.009     1.12     0.95 0 1;
 355 100      110   0.1043     0.02     1.12     0.95 0 1;
 356 100      110   0.1114    0.015     1.12     0.95 0 1;
 357 100      110   0.1458     0.01     1.12     0.95 0 1;
 360 100      110  0.06076    0.015     1.12     0.95 0 1;
 361 100      110  0.08303    0.012     1.12     0.95 0 1;
 362 100      110   0.4557     0.19     1.12     0.95 0 1;
 363 100      110   0.4557     0.15     1.12     0.95 0 1;
 364 100      110   0.9113      0.3     1.12     0.95 0 1;
 365 100      110   0.8404     0.29     1.12     0.95 0 1;
 367 100      110  0.08101    0.002     1.12     0.95 0 1;
 368 100      110   0.1853     0.01     1.12     0.95 0 1;
 369 100      110  0.03544     0.01     1.12     0.95 0 1;
 371 100      110    0.243     0.08     1.12     0.95 0 1;
 372 100      110  0.02531    0.005     1.12     0.95 0 1;
 373 100      110  0.06582    0.022     1.12     0.95 0 1;
 374 100      110   0.1114    0.015     1.12     0.95 0 1;
 375 100      110   0.1033    0.005     1.12     0.95 0 1;
 376 100      110  0.07088    0.012     1.12     0.95 0 1;
...
   ];

Line.con = [ ...
   7    8 100      220 60 0      0.55  0.00064   0.0305        0    1.044     -0.6        4        4        4  1;
  26   28 100      220 60 0      0.55  0.00036  0.02519        0    1.056        0        5        5        5  1;
  27   29 100      220 60 0      0.55  0.00036  0.02519        0    1.057        0        5        5        5  1;
  40   42 100      220 60 0      0.55  0.00034  0.02097        0    1.068        0        5        5        5  1;
  43   46 100      220 60 0      0.55  0.00034  0.02097        0    1.057        0        5        5        5  1;
  55   57 100      220 60 0      0.55  0.00081     0.03        0    1.077        0        4        4        4  1;
  90   92 100      220 60 0      0.55  0.00075  0.02444 -0.00832    1.063        0      3.3      3.3      3.3  1;
  91   93 100      220 60 0      0.55  0.00075  0.02469   -0.008    1.063        0      3.3      3.3      3.3  1;
 125  128 100      220 60 0      0.55   0.0005  0.02875   -0.016    1.064        0        4        4        4  1;
 149  150 100      220 60 0      0.55  0.00064   0.0305        0    1.083        0        4        4        4  1;
 155  158 100      220 60 0      0.55 0.000232    0.023        0    1.089        0        5        5        5  1;
 156  159 100      220 60 0      0.55 0.000232    0.023        0    1.089        0        5        5        5  1;
 170  172 100      220 60 0      0.55  0.00035  0.02375        0    1.105        0        5        5        5  1;
 183  184 100      220 60 0      0.55  0.00059  0.03093        0    1.091        0        4        4        4  1;
 190  192 100      220 60 0      0.55   0.0004     0.03        0    1.132        0        5        5        5  1;
2735  158 100      400 60 0         0  0.00031  0.00338   0.0992        0        0    13.86    13.86    13.86  1;
2735  159 100      400 60 0         0  0.00031  0.00338   0.0992        0        0    13.86    13.86    13.86  1;
2736   68 100      220 60 0         0  0.01434  0.08353    0.126        0        0     4.15     4.15     4.15  1;
2734   76 100      220 60 0         0  0.01219  0.07066   0.1174        0        0     4.12     4.12     4.12  1;
2734  105 100      220 60 0         0  0.01178  0.07087   0.1168        0        0     4.12     4.12     4.12  1;
2739  200 100      400 60 0         0    9e-06  9.4e-05        0        0        0     9.24     9.24     9.24  1;
 128 2732 100      400 60 0         0   0.0015  0.01469   0.4038        0        0    13.86    13.86    13.86  0;
 127 2733 100      400 60 0         0 0.001419  0.01468   0.4896        0        0    13.86    13.86    13.86  1;
2737  148 100      220 60 0         0 0.001651  0.01591  0.04695        0        0     3.73     3.73     3.73  1;
2737  149 100      220 60 0         0 0.001651  0.01591  0.04695        0        0     3.73     3.73     3.73  1;
2738   48 100      400 60 0         0  0.00188  0.02287   0.6432        0        0     8.31     8.31     8.31  1;
2738   49 100      400 60 0         0  0.00188  0.02287   0.6432        0        0     8.31     8.31     8.31  1;
  82 2732 100      400 60 0         0 0.003519  0.03931    1.034        0        0    16.21    16.21    16.21  1;
  43   23 100      220 60 0         0  0.01345  0.08114   0.1411        0        0     3.39     3.39     3.39  1;
  26   90 100      220 60 0         0 0.009091   0.0624   0.1114        0        0     4.57     4.57     4.57  1;
  27   91 100      220 60 0         0  0.00868  0.06405  0.09699        0        0     4.57     4.57     4.57  1;
 146   30 100      220 60 0         0  0.01696   0.1237    0.197        0        0     3.73     3.73     3.73  1;
 135   34 100      220 60 0         0  0.00512  0.02618  0.02962        0        0     3.35     3.35     3.35  1;
 134   20 100      220 60 0         0  0.01068  0.06196  0.09496        0        0     4.15     4.15     4.15  1;
 165   21 100      220 60 0         0  0.01465   0.1059   0.1709        0        0     3.73     3.73     3.73  1;
  41  109 100      220 60 0         0  0.01488  0.08161   0.1148        0        0     3.47     3.47     3.47  1;
  40   91 100      220 60 0         0  0.01116  0.07231   0.1037        0        0     3.62     3.62     3.62  1;
 179   83 100      220 60 0         0 0.008616  0.07765   0.1222        0        0     3.73     3.73     3.73  1;
 203  166 100      220 60 0         0  0.01176  0.06829   0.1028        0        0     3.62     3.62     3.62  1;
 194  166 100      220 60 0         0  0.01682  0.08909   0.1299        0        0        4        4        4  1;
 193  165 100      220 60 0         0  0.01384  0.08703   0.1348        0        0     4.27     4.27     4.27  1;
 207  168 100      220 60 0         0  0.01676  0.09717   0.1487        0        0     2.74     2.74     2.74  1;
  43   12 100      220 60 0         0  0.01269  0.07498   0.1302        0        0     3.77     3.77     3.77  1;
 198   18 100      220 60 0         0  0.01409   0.1041   0.1597        0        0     3.73     3.73     3.73  1;
 100   55 100      220 60 0         0 0.003719   0.0438    0.101        0        0     4.57     4.57     4.57  1;
 163   82 100      400 60 0         0  0.00194  0.02056   0.5158        0        0    13.16    13.16    13.16  1;
  45    9 100      400 60 0         0   0.0015  0.01506   0.4032        0        0    13.86    13.86    13.86  1;
 185  151 100      400 60 0         0  0.00294  0.03463   0.9216        0        0     6.93     6.93     6.93  1;
 121   57 100      400 60 0         0  0.00169  0.01994   0.5062        0        0     8.31     8.31     8.31  1;
  29   93 100      400 60 0         0  0.00137  0.01625   0.4118        0        0    13.86    13.86    13.86  1;
  28  123 100      400 60 0         0  0.00231  0.02769   0.7014        0        0    13.86    13.86    13.86  1;
  25  192 100      400 60 0         0  0.00207  0.02474    0.664        0        0     8.31     8.31     8.31  1;
 120   64 100      400 60 0         0   0.0015  0.01788   0.4512        0        0     8.31     8.31     8.31  1;
 122   65 100      400 60 0         0  0.00469  0.05544    1.405        0        0     8.31     8.31     8.31  1;
  82   31 100      400 60 0         0  0.00331  0.03425   0.8589        0        0     11.5     11.5     11.5  1;
  92   28 100      400 60 0         0  0.00219  0.02369   0.5958        0        0    13.16    13.16    13.16  1;
  11    4 100      220 60 0         0  0.01674  0.09711   0.1442        0        0     4.61     4.61     4.61  1;
  30   12 100      220 60 0         0   0.0057   0.0407  0.06021        0        0     3.73     3.73     3.73  1;
  33    4 100      220 60 0         0 0.004419  0.03223  0.04985        0        0     3.92     3.92     3.92  1;
  17    7 100      220 60 0         0  0.01459   0.1122   0.1655        0        0     4.27     4.27     4.27  1;
  22   10 100      220 60 0         0  0.01211  0.08742   0.1402        0        0     3.73     3.73     3.73  1;
  26    5 100      220 60 0         0 0.009773  0.05052  0.08896        0        0     3.77     3.77     3.77  1;
  17    3 100      220 60 0         0  0.01068  0.07895   0.1226        0        0     2.74     2.74     2.74  1;
  26   19 100      220 60 0         0   0.0057  0.03952  0.07553        0        0      4.8      4.8      4.8  1;
  27   20 100      220 60 0         0   0.0057  0.03952  0.07553        0        0      4.8      4.8      4.8  1;
  10    6 100      220 60 0         0  0.00525  0.03988  0.06195        0        0     3.73     3.73     3.73  1;
  32   10 100      220 60 0         0  0.00093  0.00651  0.01113        0        0     3.73     3.73     3.73  1;
  23   11 100      220 60 0         0  0.00205  0.01326  0.02243        0        0     4.15     4.15     4.15  1;
  34    5 100      220 60 0         0 0.007831    0.043  0.04962        0        0     3.35     3.35     3.35  1;
  19    4 100      220 60 0         0  0.00293  0.01599  0.02478        0        0     3.62     3.62     3.62  1;
  26    1 100      220 60 0         0  0.00155  0.01169   0.0182        0        0     7.47     7.47     7.47  1;
  27    2 100      220 60 0         0  0.00155  0.01169   0.0182        0        0     7.47     7.47     7.47  1;
  27   33 100      220 60 0         0 0.003841  0.02853  0.04588        0        0     3.92     3.92     3.92  1;
  24   33 100      220 60 0         0    2e-06  2.1e-05        0        0        0     3.92     3.92     3.92  1;
  25    9 100      400 60 0         0  0.00298  0.03417    0.935        0        0     8.31     8.31     8.31  1;
  28   25 100      400 60 0         0  0.00358  0.04262    1.094        0        0    13.86    13.86    13.86  1;
  14   29 100      400 60 0         0  0.00336  0.03977    1.022        0        0    13.16    13.16    13.16  1;
   8   15 100      400 60 0         0  0.00299  0.03675   0.9184        0        0    13.58    13.58    13.58  1;
   8   14 100      400 60 0         0  0.00112  0.01329   0.3412        0        0    13.58    13.58    13.58  1;
  31   29 100      400 60 0         0  0.00063  0.00749   0.3923        0        0    13.58    13.58    13.58  1;
  63   59 100      220 60 0         0  0.01048  0.06097  0.09205        0        0     3.16     3.16     3.16  1;
  61   56 100      220 60 0         0  0.00882  0.06564   0.1007        0        0     2.74     2.74     2.74  1;
  67   35 100      220 60 0         0  0.01122  0.06558  0.09835        0        0     2.74     2.74     2.74  1;
  51   35 100      220 60 0         0  0.01163  0.07031   0.1058        0        0     3.77     3.77     3.77  1;
  59   43 100      220 60 0         0  0.00545  0.04021  0.06699        0        0     4.46     4.46     4.46  1;
  60   44 100      220 60 0         0  0.00545  0.04021  0.06699        0        0     4.46     4.46     4.46  1;
  60   35 100      220 60 0         0  0.00837  0.04868  0.07348        0        0     4.19     4.19     4.19  1;
  68   52 100      220 60 0         0 0.003159  0.02076  0.03146        0        0     4.15     4.15     4.15  1;
  52   39 100      220 60 0         0 0.006979  0.05196  0.07967        0        0     3.73     3.73     3.73  1;
  37   56 100      220 60 0         0  0.00374  0.02783  0.04269        0        0     2.74     2.74     2.74  1;
  38   36 100      220 60 0         0  0.00769  0.05727  0.08789        0        0     3.73     3.73     3.73  1;
  55   38 100      220 60 0         0  0.00556  0.04145   0.0636        0        0     4.27     4.27     4.27  1;
  67   37 100      220 60 0         0 0.004521  0.03368  0.05169        0        0     3.92     3.92     3.92  1;
  67   66 100      220 60 0         0  0.00151 0.008781  0.01316        0        0     3.77     3.77     3.77  1;
  62   43 100      220 60 0         0  0.00574  0.04283  0.06573        0        0     4.46     4.46     4.46  1;
  63   44 100      220 60 0         0  0.00707  0.04541  0.06931        0        0     3.47     3.47     3.47  1;
  62   40 100      220 60 0         0  0.01213  0.06215  0.09371        0        0     3.47     3.47     3.47  1;
  61   41 100      220 60 0         0 0.002479  0.01798  0.02759        0        0     3.73     3.73     3.73  1;
  47   40 100      220 60 0         0 0.002401  0.01494  0.02252        0        0     3.77     3.77     3.77  1;
  50   46 100      400 60 0         0  0.00167   0.0189   0.5418        0        0    13.58    13.58    13.58  1;
  58   54 100      400 60 0         0  0.00109  0.01277   0.3418        0        0    13.58    13.58    13.58  1;
  42   58 100      400 60 0         0 0.002259  0.02644   0.7078        0        0    13.58    13.58    13.58  1;
  64   58 100      400 60 0         0  0.00094  0.01097   0.2938        0        0    15.52    15.52    15.52  1;
  48   65 100      400 60 0         0  0.00113  0.01406   0.3749        0        0     8.31     8.31     8.31  1;
  53   45 100      400 60 0         0  0.00176  0.02144   0.5734        0        0    13.58    13.58    13.58  1;
  96  125 100      220 60 0         0 0.004876  0.03362  0.05961        0        0     4.46     4.46     4.46  1;
  75  106 100      220 60 0         0  0.01093  0.05919  0.08439        0        0      2.9      2.9      2.9  1;
 106   94 100      220 60 0         0 0.001942  0.01393  0.02285        0        0     4.46     4.46     4.46  1;
  79   85 100      220 60 0         0 0.004318  0.02975  0.05264        0        0     3.73     3.73     3.73  1;
 131  130 100      220 60 0         0 0.000661 0.004959 0.007579        0        0     4.19     4.19     4.19  1;
 107  131 100      220 60 0         0 0.005372  0.04039  0.06005        0        0     4.19     4.19     4.19  1;
  91  131 100      220 60 0         0 0.000826 0.005248 0.008683        0        0     3.05     3.05     3.05  1;
 100  119 100      220 60 0         0  0.01589   0.0876   0.1168        0        0     3.47     3.47     3.47  1;
  81  113 100      220 60 0         0 0.002169  0.01459  0.02575        0        0     3.16     3.16     3.16  1;
 116  101 100      220 60 0         0  0.01773   0.1168   0.1636        0        0      2.9      2.9      2.9  1;
 126   74 100      220 60 0         0  0.00593  0.04093  0.07215        0        0     4.46     4.46     4.46  1;
 108   90 100      220 60 0         0 0.003905  0.02847  0.04498        0        0     4.27     4.27     4.27  1;
 118   79 100      220 60 0         0 0.008161  0.04242   0.0612        0        0     3.85     3.85     3.85  1;
 119   78 100      220 60 0         0 0.008161  0.04242   0.0612        0        0     3.85     3.85     3.85  1;
  79   76 100      220 60 0         0 0.005186  0.03839  0.05875        0        0     4.92     4.92     4.92  1;
  78   73 100      220 60 0         0 0.002128  0.01403   0.0226        0        0     3.35     3.35     3.35  1;
 114   78 100      220 60 0         0 0.004628  0.02775  0.04612        0        0     3.62     3.62     3.62  1;
 103   72 100      220 60 0         0  0.01122  0.07074   0.1157        0        0      2.9      2.9      2.9  1;
 110  117 100      220 60 0         0 0.006012  0.04147  0.07364        0        0     4.27     4.27     4.27  1;
  91   69 100      220 60 0         0 0.002066  0.01279  0.02055        0        0     3.16     3.16     3.16  1;
  86   90 100      220 60 0         0 0.001364 0.009731  0.01624        0        0     4.57     4.57     4.57  1;
 129   87 100      220 60 0         0 0.000579 0.004112 0.007008        0        0     4.46     4.46     4.46  1;
 132   76 100      220 60 0         0 0.000847  0.00624 0.009544        0        0     4.57     4.57     4.57  1;
 133   77 100      220 60 0         0 0.000847  0.00626 0.009477        0        0     4.57     4.57     4.57  1;
 102   77 100      220 60 0         0 0.001591  0.01112  0.01913        0        0     4.92     4.92     4.92  1;
 125  104 100      220 60 0         0 0.003141  0.02159  0.03839        0        0     4.46     4.46     4.46  1;
 126  111 100      220 60 0         0 0.004545  0.03157  0.05531        0        0     3.73     3.73     3.73  1;
 104   84 100      220 60 0         0 0.001446 0.009917   0.0176        0        0     3.73     3.73     3.73  1;
 105   95 100      220 60 0         0 0.003822  0.02667  0.04615        0        0     3.73     3.73     3.73  1;
 112   80 100      220 60 0         0 0.007769  0.04128  0.06391        0        0     3.16     3.16     3.16  1;
  89   78 100      220 60 0         0 0.004463  0.03041  0.04867        0        0      2.9      2.9      2.9  1;
 117  108 100      220 60 0         0 0.005888  0.03506  0.05235        0        0      2.9      2.9      2.9  1;
 109   99 100      220 60 0         0 0.003161  0.02341  0.03617        0        0     3.73     3.73     3.73  1;
 116   79 100      220 60 0         0 0.001839   0.0126   0.0224        0        0     3.73     3.73     3.73  1;
 107   88 100      220 60 0         0 0.001715 0.009607  0.01424        0        0     3.35     3.35     3.35  1;
  98   79 100      220 60 0         0 0.003409  0.02442  0.03997        0        0      2.9      2.9      2.9  1;
 117   78 100      220 60 0         0 0.001839   0.0126  0.02239        0        0     3.73     3.73     3.73  1;
  83   97 100      220 60 0         0 0.005702  0.04149  0.06617        0        0     4.46     4.46     4.46  1;
 124  118 100      220 60 0         0 0.004587  0.02463  0.03617        0        0     3.47     3.47     3.47  1;
 124  110 100      220 60 0         0 0.002149  0.01333  0.02211        0        0      2.9      2.9      2.9  1;
 100   71 100      220 60 0         0 0.000785 0.004876  0.00726        0        0     3.16     3.16     3.16  1;
 101   70 100      220 60 0         0 0.000785 0.004876 0.007241        0        0     3.16     3.16     3.16  1;
  93  127 100      400 60 0         0 0.002413  0.02754    0.768        0        0     8.31     8.31     8.31  1;
  82  127 100      400 60 0         0 0.002462  0.02852   0.7616        0        0    16.21    16.21    16.21  1;
 122  115 100      400 60 0         0 0.000913   0.0104   0.2899        0        0    13.58    13.58    13.58  1;
 123  121 100      400 60 0         0 0.003119  0.03563   0.9911        0        0     8.31     8.31     8.31  1;
 115  128 100      400 60 0         0 0.000919  0.01051   0.2929        0        0    13.58    13.58    13.58  1;
 174  156 100      220 60 0         0  0.01545  0.07335   0.1266        0        0     4.61     4.61     4.61  1;
 175  155 100      220 60 0         0  0.01545  0.07335   0.1266        0        0     4.61     4.61     4.61  1;
 177  155 100      220 60 0         0  0.01457  0.07955   0.1401        0        0     3.62     3.62     3.62  1;
 178  156 100      220 60 0         0  0.01457  0.07955   0.1401        0        0     3.62     3.62     3.62  1;
 177  144 100      220 60 0         0 0.006031  0.04401  0.06979        0        0     3.73     3.73     3.73  1;
 166  140 100      220 60 0         0  0.01103  0.08057   0.1241        0        0     4.46     4.46     4.46  1;
 137  155 100      220 60 0         0 0.005831  0.04231  0.07066        0        0     4.27     4.27     4.27  1;
 171  174 100      220 60 0         0  0.01849   0.0956   0.1591        0        0     3.05     3.05     3.05  1;
 152  175 100      220 60 0         0  0.01058    0.053  0.08847        0        0     4.15     4.15     4.15  1;
 154  156 100      220 60 0         0  0.01252  0.09136   0.1454        0        0     4.57     4.57     4.57  1;
 136  137 100      220 60 0         0  0.00506  0.03654   0.0636        0        0     3.05     3.05     3.05  1;
 148  143 100      220 60 0         0  0.01043  0.07789   0.1221        0        0     4.27     4.27     4.27  1;
 153  181 100      220 60 0         0 0.007711  0.05696  0.08838        0        0     3.73     3.73     3.73  1;
 171  147 100      220 60 0         0   0.0186  0.09638   0.1409        0        0      2.9      2.9      2.9  1;
 176  170 100      220 60 0         0  0.00244  0.01318   0.0213        0        0     3.77     3.77     3.77  1;
 170  140 100      220 60 0         0  0.00355  0.02593  0.04124        0        0     4.46     4.46     4.46  1;
 171  168 100      220 60 0         0  0.01312  0.07622   0.1166        0        0     3.62     3.62     3.62  1;
 170  152 100      220 60 0         0 0.009341  0.05225   0.0877        0        0     3.05     3.05     3.05  1;
 146  135 100      220 60 0         0 0.006141  0.03252  0.05246        0        0     3.85     3.85     3.85  1;
 147  134 100      220 60 0         0  0.00438  0.03188  0.05072        0        0     4.57     4.57     4.57  1;
 165  147 100      220 60 0         0 0.000479  0.00331 0.005711        0        0     4.46     4.46     4.46  1;
 166  146 100      220 60 0         0 0.000479  0.00331 0.005711        0        0     4.46     4.46     4.46  1;
 154  143 100      220 60 0         0  0.01054  0.07686   0.1224        0        0     3.73     3.73     3.73  1;
 160  148 100      220 60 0         0  0.00469  0.03465  0.05382        0        0     4.27     4.27     4.27  1;
 149  141 100      220 60 0         0 0.006469   0.0413  0.06921        0        0     4.27     4.27     4.27  1;
 169  141 100      220 60 0         0  0.00105 0.007211  0.01028        0        0     3.73     3.73     3.73  1;
 169  160 100      220 60 0         0 0.006099  0.04483  0.07095        0        0     3.73     3.73     3.73  1;
 177  136 100      220 60 0         0 0.002211  0.01655  0.02478        0        0     3.73     3.73     3.73  1;
 179  178 100      220 60 0         0 0.005169  0.03698  0.05895        0        0     3.73     3.73     3.73  1;
 181  174 100      220 60 0         0 0.002401  0.01779  0.02759        0        0     3.81     3.81     3.81  1;
 158  138 100      400 60 0         0  0.00274  0.02696   0.7059        0        0     11.5     11.5     11.5  1;
 164  139 100      400 60 0         0   0.0017  0.01733   0.4563        0        0     9.15     9.15     9.15  1;
 162  163 100      400 60 0         0  0.00136  0.01574   0.4337        0        0    16.21    16.21    16.21  1;
 172  151 100      400 60 0         0  0.00371  0.04326    1.187        0        0     6.93     6.93     6.93  1;
 188  193 100      220 60 0         0  0.02738   0.1425   0.2005        0        0     3.51     3.51     3.51  1;
 198  203 100      220 60 0         0  0.02756   0.1601   0.2429        0        0     2.74     2.74     2.74  1;
 189  208 100      220 60 0         0  0.01905   0.1113   0.1679        0        0     2.74     2.74     2.74  1;
 191  194 100      220 60 0         0  0.00795  0.05919   0.0908        0        0     3.73     3.73     3.73  1;
 193  182 100      220 60 0         0   0.0018  0.02114   0.0515        0        0     7.47     7.47     7.47  1;
 202  204 100      220 60 0         0  0.00731  0.05579  0.08364        0        0     2.74     2.74     2.74  1;
...